scratch/greDemo/GridLabD Conversion/SUB 8.glm
///////////////////////////////////////////////////////; 
// This glm created by 'Milsoft to GridLabD Export'. //; 
//             Wed May 21 16:25:09 2014              //; 
///////////////////////////////////////////////////////; 

clock { timestamp '2000-01-01 00:00:00'; } 

module powerflow{ solver_method FBS; } 
// Note: Number Of Looped Switches in WindMil = 0 

object node {
          name            SUB 8; 
          phases          ABCN; 
          bustype         PQ; 
          voltage_A       +7200+0j; 
          voltage_B       -3600-6235.3828j; 
          voltage_C       -3600+6235.3828j; 
          nominal_voltage 7200; 
          } 

object node {name   span_6146_n; phases ABCN; nominal_voltage 7200;  } 

object overhead_line {
          name   span_6146; 
          from   span_7987_n; 
          to     span_6146_n; 
          phases ABCN; 
          length 368.39987; 
          configuration SystemCnstDefaultABCN__1/0 AC; 
          } 

object node {name   span_7987_n; phases ABCN; nominal_voltage 7200;  } 

object overhead_line {
          name   span_7987; 
          from   span_7986_n; 
          to     span_7987_n; 
          phases ABCN; 
          length 528.84186; 
          configuration SystemCnstDefaultABCN__1/0 AC; 
          } 

object node {name   span_7986_n; phases ABCN; nominal_voltage 7200;  } 

object overhead_line {
          name   span_7986; 
          from   span_3941_n; 
          to     span_7986_n; 
          phases ABCN; 
          length 46.427109; 
          configuration SystemCnstDefaultABCN__1/0 AC; 
          } 

object node {name   span_24605_n; phases AN; nominal_voltage 120;  } 

object overhead_line {
          name   span_24605; 
          from   T3960013_n; 
          to     span_24605_n; 
          phases AN; 
          length 28.924055; 
          configuration SystemCnstDefaultAN__1/0 Triplex; 
          } 

object node {name   T3960013_n; phases AN; nominal_voltage 120;  } 

object transformer {
          name   T3960013; 
          from   span_216_n; 
          to     T3960013_n; 
          phases AN; 
          configuration SINGLE_PHASE-_10-7200To120V; 
          } 

object node {name   span_216_n; phases AN; nominal_voltage 7200;  } 

object overhead_line {
          name   span_216; 
          from   span_3941_n; 
          to     span_216_n; 
          phases AN; 
          length 291.83664; 
          configuration SystemCnstDefaultAN__1/0 AC; 
          } 

object node {name   span_3941_n; phases ABCN; nominal_voltage 7200;  } 

object overhead_line {
          name   span_3941; 
          from   span_3940_n; 
          to     span_3941_n; 
          phases ABCN; 
          length 1917.2742; 
          configuration SystemCnstDefaultABCN__1/0 AC; 
          } 

object node {name   span_26034_n; phases AN; nominal_voltage 120;  } 

object overhead_line {
          name   span_26034; 
          from   span_12802_n; 
          to     span_26034_n; 
          phases AN; 
          length 45.964512; 
          configuration SystemCnstDefaultAN__1/0 Triplex; 
          } 

object node {name   span_12802_n; phases AN; nominal_voltage 120;  } 

object overhead_line {
          name   span_12802; 
          from   T3960003_n; 
          to     span_12802_n; 
          phases AN; 
          length 79.654266; 
          configuration SystemCnstDefaultAN__1/0 Triplex; 
          } 

object node {name   span_26033_n; phases AN; nominal_voltage 120;  } 

object overhead_line {
          name   span_26033; 
          from   span_12801_n; 
          to     span_26033_n; 
          phases AN; 
          length 53.374725; 
          configuration SystemCnstDefaultAN__1/0 Triplex; 
          } 

object node {name   span_12801_n; phases AN; nominal_voltage 120;  } 

object overhead_line {
          name   span_12801; 
          from   T3960003_n; 
          to     span_12801_n; 
          phases AN; 
          length 156.67516; 
          configuration SystemCnstDefaultAN__1/0 Triplex; 
          } 

object node {name   T3960003_n; phases AN; nominal_voltage 120;  } 

object transformer {
          name   T3960003; 
          from   span_7989_n; 
          to     T3960003_n; 
          phases AN; 
          configuration SINGLE_PHASE-_5-7200To120V; 
          } 

object node {name   span_46015_n; phases AN; nominal_voltage 120;  } 

object underground_line {
          name   span_46015; 
          from   T3960023_n; 
          to     span_46015_n; 
          phases AN; 
          length 210.66895; 
          configuration SystemCnstDefaultA__4/0AL UG; 
          } 

object node {name   T3960023_n; phases AN; nominal_voltage 120;  } 

object transformer {
          name   T3960023; 
          from   span_14811_n; 
          to     T3960023_n; 
          phases AN; 
          configuration SINGLE_PHASE-_15-7200To120V; 
          } 

object node {name   span_14811_n; phases AN; nominal_voltage 7200;  } 

object underground_line {
          name   span_14811; 
          from   span_7989_n; 
          to     span_14811_n; 
          phases AN; 
          length 182.96091; 
          configuration SystemCnstDefaultA__1/0 URD; 
          } 

object node {name   span_7989_n; phases AN; nominal_voltage 7200;  } 

object overhead_line {
          name   span_7989; 
          from   span_7988_n; 
          to     span_7989_n; 
          phases AN; 
          length 402.52469; 
          configuration SystemCnstDefaultAN__1/0 AC; 
          } 

object node {name   span_7988_n; phases AN; nominal_voltage 7200;  } 

object overhead_line {
          name   span_7988; 
          from   F39-34-4_n; 
          to     span_7988_n; 
          phases AN; 
          length 200.1275; 
          configuration SystemCnstDefaultAN__1/0 AC; 
          } 

object node {name   F39-34-4_n; phases AN; nominal_voltage 7200;  } 

object fuse {
          name          F39-34-4; 
          from          span_3940_n; 
          to            F39-34-4_n; 
          phases        AN; 
          current_limit 45.00544; 
          mean_replacement_time 1.0 ; 
          repair_dist_type      NONE; 
          } 

object node {name   span_3940_n; phases ABCN; nominal_voltage 7200;  } 

object overhead_line {
          name   span_3940; 
          from   SL CKT 2_n; 
          to     span_3940_n; 
          phases ABCN; 
          length 911.7605; 
          configuration SystemCnstDefaultABCN__1/0 AC; 
          } 

object node {name   SL CKT 2_n; phases ABCN; nominal_voltage 7200;  } 

object recloser {
          name                SL CKT 2; 
          from                SUB 8; 
          to                  SL CKT 2_n; 
          phases              ABCN; 
          max_number_of_tries 0; 
          } 

object underground_line {
          name   span_20647; 
          from   span_20646_n; 
          to     span_20647_n; 
          phases AN; 
          length 92; 
          configuration SystemCnstDefaultA__1/0 URD; 
          } 

object node {name   span_20647_n; phases AN; nominal_voltage 7200;  } 

object node {name   SL39-29-18-A_n; phases AN; nominal_voltage 7200;  } 

object switch {
          name   SL39-29-18-A; 
          from   span_20647_n; 
          to     SL39-29-18-A_n; 
          phases AN; 
          status CLOSED; 
          } 

object overhead_line {
          name   span_31634; 
          from   SL39-29-18-A_n; 
          to     span_31634_n; 
          phases AN; 
          length 358.00885; 
          configuration SystemCnstDefaultAN__4 AC; 
          } 

object node {name   span_31634_n; phases AN; nominal_voltage 7200;  } 

object transformer {
          name   T3965024; 
          from   span_31634_n; 
          to     T3965024_n; 
          phases AN; 
          configuration SINGLE_PHASE--7200To120V; 
          } 

object node {name   T3965024_n; phases AN; nominal_voltage 120;  } 

object overhead_line {
          name   span_31635; 
          from   T3965024_n; 
          to     span_31635_n; 
          phases AN; 
          length 117.10899; 
          configuration SystemCnstDefaultAN__1/0 Triplex; 
          } 

object node {name   span_31635_n; phases AN; nominal_voltage 120;  } 

object overhead_line {
          name   span_31636; 
          from   T3965024_n; 
          to     span_31636_n; 
          phases AN; 
          length 113.21738; 
          configuration SystemCnstDefaultAN__1/0 Triplex; 
          } 

object node {name   span_31636_n; phases AN; nominal_voltage 120;  } 

object overhead_line {
          name   span_31637; 
          from   span_31634_n; 
          to     span_31637_n; 
          phases AN; 
          length 237.09085; 
          configuration SystemCnstDefaultAN__4 AC; 
          } 

object node {name   span_31637_n; phases AN; nominal_voltage 7200;  } 

object transformer {
          name   T3965042; 
          from   span_31637_n; 
          to     T3965042_n; 
          phases AN; 
          configuration SINGLE_PHASE-_15-7200To120V; 
          } 

object node {name   T3965042_n; phases AN; nominal_voltage 120;  } 

object overhead_line {
          name   span_31642; 
          from   T3965042_n; 
          to     span_31642_n; 
          phases AN; 
          length 143.19853; 
          configuration SystemCnstDefaultAN__1/0 Triplex; 
          } 

object node {name   span_31642_n; phases AN; nominal_voltage 120;  } 

object underground_line {
          name   span_51181; 
          from   serv_17415_n; 
          to     span_51181_n; 
          phases AN; 
          length 66.027718; 
          configuration SystemCnstDefaultA__4/0AL UG; 
          } 

object node {name   span_51181_n; phases AN; nominal_voltage 120;  } 

object underground_line {
          name   span_51176; 
          from   serv_17414_n; 
          to     span_51176_n; 
          phases AN; 
          length 44.368973; 
          configuration SystemCnstDefaultA__4/0AL UG; 
          } 

object node {name   span_51176_n; phases AN; nominal_voltage 120;  } 

object overhead_line {
          name   span_31639; 
          from   T3965042_n; 
          to     span_31639_n; 
          phases AN; 
          length 103.04987; 
          configuration SystemCnstDefaultAN__1/0 Triplex; 
          } 

object node {name   span_31639_n; phases AN; nominal_voltage 120;  } 

object underground_line {
          name   span_51175; 
          from   serv_17412_n; 
          to     span_51175_n; 
          phases AN; 
          length 64.270805; 
          configuration SystemCnstDefaultA__4/0AL UG; 
          } 

object node {name   span_51175_n; phases AN; nominal_voltage 120;  } 

object overhead_line {
          name   span_51173; 
          from   span_31639_n; 
          to     span_51173_n; 
          phases AN; 
          length 83.548416; 
          configuration SystemCnstDefaultAN__#2 Triplex; 
          } 

object node {name   span_51173_n; phases AN; nominal_voltage 120;  } 

object underground_line {
          name   span_51174; 
          from   serv_17413_n; 
          to     span_51174_n; 
          phases AN; 
          length 39.903503; 
          configuration SystemCnstDefaultA__4/0AL UG; 
          } 

object node {name   span_51174_n; phases AN; nominal_voltage 120;  } 

object overhead_line {
          name   span_31638; 
          from   span_31637_n; 
          to     span_31638_n; 
          phases AN; 
          length 369.89694; 
          configuration SystemCnstDefaultAN__4 AC; 
          } 

object node {name   span_31638_n; phases AN; nominal_voltage 7200;  } 

object overhead_line {
          name   span_31643; 
          from   span_31638_n; 
          to     span_31643_n; 
          phases AN; 
          length 225.70029; 
          configuration SystemCnstDefaultAN__4 AC; 
          } 

object node {name   span_31643_n; phases AN; nominal_voltage 7200;  } 

object node {name   SL39-29-15-A_n; phases AN; nominal_voltage 7200;  } 

object switch {
          name   SL39-29-15-A; 
          from   span_31643_n; 
          to     SL39-29-15-A_n; 
          phases AN; 
          status CLOSED; 
          } 

object underground_line {
          name   span_59540; 
          from   SL39-29-15-A_n; 
          to     span_59540_n; 
          phases AN; 
          length 31; 
          configuration SystemCnstDefaultA__1/0 URD; 
          } 

object node {name   span_59540_n; phases AN; nominal_voltage 7200;  } 

object underground_line {
          name   span_59541; 
          from   span_59540_n; 
          to     span_59541_n; 
          phases AN; 
          length 309; 
          configuration SystemCnstDefaultA__1/0 URD; 
          } 

object node {name   span_59541_n; phases AN; nominal_voltage 7200;  } 

object node {name   SL39-29-5-A_n; phases AN; nominal_voltage 7200;  } 

object switch {
          name   SL39-29-5-A; 
          from   span_59541_n; 
          to     SL39-29-5-A_n; 
          phases AN; 
          status CLOSED; 
          } 

object overhead_line {
          name   span_31646; 
          from   SL39-29-5-A_n; 
          to     span_31646_n; 
          phases AN; 
          length 317.74142; 
          configuration SystemCnstDefaultAN__1/0 AC; 
          } 

object node {name   span_31646_n; phases AN; nominal_voltage 7200;  } 

object transformer {
          name   T3965030; 
          from   span_31646_n; 
          to     T3965030_n; 
          phases AN; 
          configuration SINGLE_PHASE-_5-7200To120V; 
          } 

object node {name   T3965030_n; phases AN; nominal_voltage 120;  } 

object overhead_line {
          name   span_31648; 
          from   T3965030_n; 
          to     span_31648_n; 
          phases AN; 
          length 75.776207; 
          configuration SystemCnstDefaultAN__1/0 Triplex; 
          } 

object node {name   span_31648_n; phases AN; nominal_voltage 120;  } 

object overhead_line {
          name   span_31647; 
          from   T3965030_n; 
          to     span_31647_n; 
          phases AN; 
          length 57.831047; 
          configuration SystemCnstDefaultAN__1/0 Triplex; 
          } 

object node {name   span_31647_n; phases AN; nominal_voltage 120;  } 

object overhead_line {
          name   span_31649; 
          from   span_31646_n; 
          to     span_31649_n; 
          phases AN; 
          length 159.44966; 
          configuration SystemCnstDefaultAN__1/0 AC; 
          } 

object node {name   span_31649_n; phases AN; nominal_voltage 7200;  } 

object overhead_line {
          name   span_31650; 
          from   span_31649_n; 
          to     span_31650_n; 
          phases AN; 
          length 69.626343; 
          configuration SystemCnstDefaultAN__1/0 AC; 
          } 

object node {name   span_31650_n; phases AN; nominal_voltage 7200;  } 

object underground_line {
          name   span_19751; 
          from   span_31650_n; 
          to     span_19751_n; 
          phases AN; 
          length 131.60886; 
          configuration SystemCnstDefaultA__1/0 URD; 
          } 

object node {name   span_19751_n; phases AN; nominal_voltage 7200;  } 

object underground_line {
          name   span_19752; 
          from   span_19751_n; 
          to     span_19752_n; 
          phases AN; 
          length 827.25885; 
          configuration SystemCnstDefaultA__1/0 URD; 
          } 

object node {name   span_19752_n; phases AN; nominal_voltage 7200;  } 

object underground_line {
          name   span_46538; 
          from   span_19752_n; 
          to     span_46538_n; 
          phases AN; 
          length 371; 
          configuration SystemCnstDefaultA__1/0 URD; 
          } 

object node {name   span_46538_n; phases AN; nominal_voltage 7200;  } 

object transformer {
          name   T3966012; 
          from   span_46538_n; 
          to     T3966012_n; 
          phases AN; 
          configuration SINGLE_PHASE-_150-72000To12000V; 
          } 

object node {name   T3966012_n; phases AN; nominal_voltage 12000;  } 

object underground_line {
          name   span_46541; 
          from   T3966012_n; 
          to     span_46541_n; 
          phases AN; 
          length 198.14821; 
          configuration SystemCnstDefaultA__4/0AL UG; 
          } 

object node {name   span_46541_n; phases AN; nominal_voltage 12000;  } 

object underground_line {
          name   span_46540; 
          from   T3966012_n; 
          to     span_46540_n; 
          phases AN; 
          length 169.88586; 
          configuration SystemCnstDefaultA__4/0AL UG; 
          } 

object node {name   span_46540_n; phases AN; nominal_voltage 12000;  } 

object underground_line {
          name   span_46539; 
          from   span_46538_n; 
          to     span_46539_n; 
          phases AN; 
          length 566; 
          configuration SystemCnstDefaultA__1/0 URD; 
          } 

object node {name   span_46539_n; phases AN; nominal_voltage 7200;  } 

object fuse {
          name          F39-29-4; 
          from          span_46539_n; 
          to            F39-29-4_n; 
          phases        AN; 
          current_limit 26.4849; 
          mean_replacement_time 1.0 ; 
          repair_dist_type      NONE; 
          } 

object node {name   F39-29-4_n; phases AN; nominal_voltage 7200;  } 

object overhead_line {
          name   span_31653; 
          from   F39-29-4_n; 
          to     span_31653_n; 
          phases AN; 
          length 86.886169; 
          configuration SystemCnstDefaultAN__4 AC; 
          } 

object node {name   span_31653_n; phases AN; nominal_voltage 7200;  } 

object overhead_line {
          name   span_31654; 
          from   span_31653_n; 
          to     span_31654_n; 
          phases AN; 
          length 878.19647; 
          configuration SystemCnstDefaultAN__4 AC; 
          } 

object node {name   span_31654_n; phases AN; nominal_voltage 7200;  } 

object overhead_line {
          name   span_4083; 
          from   span_31654_n; 
          to     span_4083_n; 
          phases AN; 
          length 696.98993; 
          configuration SystemCnstDefaultAN__4 AC; 
          } 

object node {name   span_4083_n; phases AN; nominal_voltage 7200;  } 

object overhead_line {
          name   span_969; 
          from   span_4083_n; 
          to     span_969_n; 
          phases AN; 
          length 425.87488; 
          configuration SystemCnstDefaultAN__4 AC; 
          } 

object node {name   span_969_n; phases AN; nominal_voltage 7200;  } 

object transformer {
          name   tran_1177; 
          from   span_969_n; 
          to     tran_1177_n; 
          phases AN; 
          configuration SINGLE_PHASE-_10-7200To120V; 
          } 

object node {name   tran_1177_n; phases AN; nominal_voltage 120;  } 

object overhead_line {
          name   span_25908; 
          from   tran_1177_n; 
          to     span_25908_n; 
          phases AN; 
          length 168.74696; 
          configuration SystemCnstDefaultAN__1/0 Triplex; 
          } 

object node {name   span_25908_n; phases AN; nominal_voltage 120;  } 

object overhead_line {
          name   span_25906; 
          from   tran_1177_n; 
          to     span_25906_n; 
          phases AN; 
          length 58.102726; 
          configuration SystemCnstDefaultAN__1/0 Triplex; 
          } 

object node {name   span_25906_n; phases AN; nominal_voltage 120;  } 

object overhead_line {
          name   span_25907; 
          from   tran_1177_n; 
          to     span_25907_n; 
          phases AN; 
          length 93.113609; 
          configuration SystemCnstDefaultAN__1/0 Triplex; 
          } 

object node {name   span_25907_n; phases AN; nominal_voltage 120;  } 

object overhead_line {
          name   span_31656; 
          from   span_4083_n; 
          to     span_31656_n; 
          phases AN; 
          length 217.59328; 
          configuration SystemCnstDefaultAN__4 AC; 
          } 

object node {name   span_31656_n; phases AN; nominal_voltage 7200;  } 

object transformer {
          name   T3966011; 
          from   span_31656_n; 
          to     T3966011_n; 
          phases AN; 
          configuration SINGLE_PHASE-_10-7200To120V; 
          } 

object node {name   T3966011_n; phases AN; nominal_voltage 120;  } 

object overhead_line {
          name   span_31658; 
          from   T3966011_n; 
          to     span_31658_n; 
          phases AN; 
          length 536.03125; 
          configuration SystemCnstDefaultAN__1/0 Triplex; 
          } 

object node {name   span_31658_n; phases AN; nominal_voltage 120;  } 

object overhead_line {
          name   span_31657; 
          from   span_31656_n; 
          to     span_31657_n; 
          phases AN; 
          length 554.84045; 
          configuration SystemCnstDefaultAN__4 AC; 
          } 

object node {name   span_31657_n; phases AN; nominal_voltage 7200;  } 

object underground_line {
          name   span_15788; 
          from   span_31657_n; 
          to     span_15788_n; 
          phases AN; 
          length 282.5704; 
          configuration SystemCnstDefaultA__1/0 URD; 
          } 

object node {name   span_15788_n; phases AN; nominal_voltage 7200;  } 

object transformer {
          name   T3966015; 
          from   span_15788_n; 
          to     T3966015_n; 
          phases AN; 
          configuration SINGLE_PHASE-_15-7200To120V; 
          } 

object node {name   T3966015_n; phases AN; nominal_voltage 120;  } 

object underground_line {
          name   span_46051; 
          from   T3966015_n; 
          to     span_46051_n; 
          phases AN; 
          length 49.279858; 
          configuration SystemCnstDefaultA__1/0AL UG; 
          } 

object node {name   span_46051_n; phases AN; nominal_voltage 120;  } 

object overhead_line {
          name   span_31662; 
          from   span_31657_n; 
          to     span_31662_n; 
          phases AN; 
          length 87.714302; 
          configuration SystemCnstDefaultAN__4 AC; 
          } 

object node {name   span_31662_n; phases AN; nominal_voltage 7200;  } 

object transformer {
          name   T3966014; 
          from   span_31662_n; 
          to     T3966014_n; 
          phases AN; 
          configuration SINGLE_PHASE--7200To120V; 
          } 

object node {name   T3966014_n; phases AN; nominal_voltage 120;  } 

object overhead_line {
          name   span_31664; 
          from   T3966014_n; 
          to     span_31664_n; 
          phases AN; 
          length 148.97; 
          configuration SystemCnstDefaultAN__1/0 Triplex; 
          } 

object node {name   span_31664_n; phases AN; nominal_voltage 120;  } 

object overhead_line {
          name   span_31663; 
          from   span_31662_n; 
          to     span_31663_n; 
          phases AN; 
          length 229.93591; 
          configuration SystemCnstDefaultAN__4 AC; 
          } 

object node {name   span_31663_n; phases AN; nominal_voltage 7200;  } 

object overhead_line {
          name   span_8127; 
          from   span_31663_n; 
          to     span_8127_n; 
          phases AN; 
          length 363.82724; 
          configuration SystemCnstDefaultAN__4 AC; 
          } 

object node {name   span_8127_n; phases AN; nominal_voltage 7200;  } 

object overhead_line {
          name   span_8126; 
          from   span_8127_n; 
          to     span_8126_n; 
          phases AN; 
          length 188.04085; 
          configuration SystemCnstDefaultAN__4 AC; 
          } 

object node {name   span_8126_n; phases AN; nominal_voltage 7200;  } 

object transformer {
          name   T3967009; 
          from   span_8126_n; 
          to     T3967009_n; 
          phases AN; 
          configuration SINGLE_PHASE-_10-7200To120V; 
          } 

object node {name   T3967009_n; phases AN; nominal_voltage 120;  } 

object overhead_line {
          name   span_25911; 
          from   T3967009_n; 
          to     span_25911_n; 
          phases AN; 
          length 119.53744; 
          configuration SystemCnstDefaultAN__1/0 Triplex; 
          } 

object node {name   span_25911_n; phases AN; nominal_voltage 120;  } 

object transformer {
          name   T3966002; 
          from   span_31663_n; 
          to     T3966002_n; 
          phases AN; 
          configuration SINGLE_PHASE-_15-7200To120V; 
          } 

object node {name   T3966002_n; phases AN; nominal_voltage 120;  } 

object overhead_line {
          name   span_31659; 
          from   T3966002_n; 
          to     span_31659_n; 
          phases AN; 
          length 352.96143; 
          configuration SystemCnstDefaultAN__1/0 Triplex; 
          } 

object node {name   span_31659_n; phases AN; nominal_voltage 120;  } 

object overhead_line {
          name   span_31660; 
          from   T3966002_n; 
          to     span_31660_n; 
          phases AN; 
          length 324.89246; 
          configuration SystemCnstDefaultAN__1/0 Triplex; 
          } 

object node {name   span_31660_n; phases AN; nominal_voltage 120;  } 

object overhead_line {
          name   span_31661; 
          from   T3966002_n; 
          to     span_31661_n; 
          phases AN; 
          length 326.92615; 
          configuration SystemCnstDefaultAN__1/0 Triplex; 
          } 

object node {name   span_31661_n; phases AN; nominal_voltage 120;  } 

object overhead_line {
          name   span_4079; 
          from   span_31663_n; 
          to     span_4079_n; 
          phases AN; 
          length 2038.3691; 
          configuration SystemCnstDefaultAN__4 AC; 
          } 

object node {name   span_4079_n; phases AN; nominal_voltage 7200;  } 

object overhead_line {
          name   span_4072; 
          from   span_4079_n; 
          to     span_4072_n; 
          phases AN; 
          length 273.43246; 
          configuration SystemCnstDefaultAN__4 AC; 
          } 

object node {name   span_4072_n; phases AN; nominal_voltage 7200;  } 

object overhead_line {
          name   span_970; 
          from   span_4072_n; 
          to     span_970_n; 
          phases AN; 
          length 329.55444; 
          configuration SystemCnstDefaultAN__4 AC; 
          } 

object node {name   span_970_n; phases AN; nominal_voltage 7200;  } 

object overhead_line {
          name   span_4066; 
          from   span_970_n; 
          to     span_4066_n; 
          phases AN; 
          length 273.78922; 
          configuration SystemCnstDefaultAN__4 AC; 
          } 

object node {name   span_4066_n; phases AN; nominal_voltage 7200;  } 

object transformer {
          name   T3967002; 
          from   span_4066_n; 
          to     T3967002_n; 
          phases AN; 
          configuration SINGLE_PHASE-_10-7200To120V; 
          } 

object node {name   T3967002_n; phases AN; nominal_voltage 120;  } 

object overhead_line {
          name   span_25912; 
          from   T3967002_n; 
          to     span_25912_n; 
          phases AN; 
          length 129.88698; 
          configuration SystemCnstDefaultAN__1/0 Triplex; 
          } 

object node {name   span_25912_n; phases AN; nominal_voltage 120;  } 

object node {name   SL39-32-2-A_n; phases AN; nominal_voltage 7200;  } 

object switch {
          name   SL39-32-2-A; 
          from   span_970_n; 
          to     SL39-32-2-A_n; 
          phases AN; 
          status CLOSED; 
          } 

object underground_line {
          name   span_17514; 
          from   SL39-32-2-A_n; 
          to     span_17514_n; 
          phases AN; 
          length 495.76312; 
          configuration SystemCnstDefaultA__1/0 URD; 
          } 

object node {name   span_17514_n; phases AN; nominal_voltage 7200;  } 

object transformer {
          name   T3967003; 
          from   span_17514_n; 
          to     T3967003_n; 
          phases AN; 
          configuration SINGLE_PHASE-_25-7200To120V; 
          } 

object node {name   T3967003_n; phases AN; nominal_voltage 119.99999;  } 

object underground_line {
          name   span_42529; 
          from   T3967003_n; 
          to     span_42529_n; 
          phases AN; 
          length 72.313614; 
          configuration SystemCnstDefaultA__4/0AL UG; 
          } 

object node {name   span_42529_n; phases AN; nominal_voltage 119.99999;  } 

object underground_line {
          name   span_42528; 
          from   T3967003_n; 
          to     span_42528_n; 
          phases AN; 
          length 39.666286; 
          configuration SystemCnstDefaultA__4/0AL UG; 
          } 

object node {name   span_42528_n; phases AN; nominal_voltage 119.99999;  } 

object overhead_line {
          name   span_53051; 
          from   span_4072_n; 
          to     span_53051_n; 
          phases AN; 
          length 1042; 
          configuration SystemCnstDefaultAN__4 AC; 
          } 

object node {name   span_53051_n; phases AN; nominal_voltage 7200;  } 

object overhead_line {
          name   span_53052; 
          from   span_53051_n; 
          to     span_53052_n; 
          phases AN; 
          length 162; 
          configuration SystemCnstDefaultAN__4 AC; 
          } 

object node {name   span_53052_n; phases AN; nominal_voltage 7200;  } 

object node {name   fake_g_27_n; parent span_53052_n; phases ABN; nominal_voltage 7200;  } 

object switch {
          name   N39-31-2-A; 
          from   fake_g_27_n; 
          to     span_53052_n; 
          phases AN; 
          status OPEN; 
          } 

object transformer {
          name   T3967001; 
          from   span_53051_n; 
          to     T3967001_n; 
          phases AN; 
          configuration SINGLE_PHASE-_15-7200To120V; 
          } 

object node {name   T3967001_n; phases AN; nominal_voltage 120;  } 

object underground_line {
          name   span_50407; 
          from   serv_16958_n; 
          to     span_50407_n; 
          phases AN; 
          length 85.494171; 
          configuration SystemCnstDefaultA__4/0AL UG; 
          } 

object node {name   span_50407_n; phases AN; nominal_voltage 120;  } 

object overhead_line {
          name   span_9060; 
          from   span_4079_n; 
          to     span_9060_n; 
          phases AN; 
          length 325.71008; 
          configuration SystemCnstDefaultAN__4 AC; 
          } 

object node {name   span_9060_n; phases AN; nominal_voltage 7200;  } 

object overhead_line {
          name   span_9061; 
          from   span_9060_n; 
          to     span_9061_n; 
          phases AN; 
          length 140.56622; 
          configuration SystemCnstDefaultAN__4 AC; 
          } 

object node {name   span_9061_n; phases AN; nominal_voltage 7200;  } 

object overhead_line {
          name   span_31666; 
          from   span_9061_n; 
          to     span_31666_n; 
          phases AN; 
          length 202.85497; 
          configuration SystemCnstDefaultAN__4 AC; 
          } 

object node {name   span_31666_n; phases AN; nominal_voltage 7200;  } 

object transformer {
          name   T3967007; 
          from   span_31666_n; 
          to     T3967007_n; 
          phases AN; 
          configuration SINGLE_PHASE--7200To120V; 
          } 

object node {name   T3967007_n; phases AN; nominal_voltage 120;  } 

object overhead_line {
          name   span_31668; 
          from   T3967007_n; 
          to     span_31668_n; 
          phases AN; 
          length 164.52142; 
          configuration SystemCnstDefaultAN__1/0 Triplex; 
          } 

object node {name   span_31668_n; phases AN; nominal_voltage 120;  } 

object overhead_line {
          name   span_31669; 
          from   T3967007_n; 
          to     span_31669_n; 
          phases AN; 
          length 200.26248; 
          configuration SystemCnstDefaultAN__1/0 Triplex; 
          } 

object node {name   span_31669_n; phases AN; nominal_voltage 120;  } 

object overhead_line {
          name   span_31667; 
          from   span_31666_n; 
          to     span_31667_n; 
          phases AN; 
          length 190.42867; 
          configuration SystemCnstDefaultAN__4 AC; 
          } 

object node {name   span_31667_n; phases AN; nominal_voltage 7200;  } 

object transformer {
          name   T3967004; 
          from   span_31667_n; 
          to     T3967004_n; 
          phases AN; 
          configuration SINGLE_PHASE-_10-7200To120V; 
          } 

object node {name   T3967004_n; phases AN; nominal_voltage 120;  } 

object overhead_line {
          name   span_31665; 
          from   T3967004_n; 
          to     span_31665_n; 
          phases AN; 
          length 139.37514; 
          configuration SystemCnstDefaultAN__1/0 Triplex; 
          } 

object node {name   span_31665_n; phases AN; nominal_voltage 120;  } 

object transformer {
          name   T3967006; 
          from   span_9060_n; 
          to     T3967006_n; 
          phases AN; 
          configuration SINGLE_PHASE--7200To120V; 
          } 

object node {name   T3967006_n; phases AN; nominal_voltage 120;  } 

object overhead_line {
          name   span_31671; 
          from   T3967006_n; 
          to     span_31671_n; 
          phases AN; 
          length 171.6813; 
          configuration SystemCnstDefaultAN__1/0 Triplex; 
          } 

object node {name   span_31671_n; phases AN; nominal_voltage 120;  } 

object overhead_line {
          name   span_31670; 
          from   T3967006_n; 
          to     span_31670_n; 
          phases AN; 
          length 182.79224; 
          configuration SystemCnstDefaultAN__1/0 Triplex; 
          } 

object node {name   span_31670_n; phases AN; nominal_voltage 120;  } 

object overhead_line {
          name   span_968; 
          from   span_31654_n; 
          to     span_968_n; 
          phases AN; 
          length 115.93585; 
          configuration SystemCnstDefaultAN__8 CWC; 
          } 

object node {name   span_968_n; phases AN; nominal_voltage 7200;  } 

object transformer {
          name   T3966005; 
          from   span_968_n; 
          to     T3966005_n; 
          phases AN; 
          configuration SINGLE_PHASE-_10-7200To120V; 
          } 

object node {name   T3966005_n; phases AN; nominal_voltage 120;  } 

object overhead_line {
          name   span_25909; 
          from   T3966005_n; 
          to     span_25909_n; 
          phases AN; 
          length 160.75652; 
          configuration SystemCnstDefaultAN__1/0 Triplex; 
          } 

object node {name   span_25909_n; phases AN; nominal_voltage 120;  } 

object overhead_line {
          name   span_25910; 
          from   T3966005_n; 
          to     span_25910_n; 
          phases AN; 
          length 73.148491; 
          configuration SystemCnstDefaultAN__1/0 Triplex; 
          } 

object node {name   span_25910_n; phases AN; nominal_voltage 120;  } 

object transformer {
          name   T3966007; 
          from   span_31653_n; 
          to     T3966007_n; 
          phases AN; 
          configuration SINGLE_PHASE--7200To120V; 
          } 

object node {name   T3966007_n; phases AN; nominal_voltage 120;  } 

object overhead_line {
          name   span_31655; 
          from   T3966007_n; 
          to     span_31655_n; 
          phases AN; 
          length 171.53693; 
          configuration SystemCnstDefaultAN__1/0 Triplex; 
          } 

object node {name   span_31655_n; phases AN; nominal_voltage 120;  } 

object transformer {
          name   T3966008; 
          from   span_46539_n; 
          to     T3966008_n; 
          phases AN; 
          configuration SINGLE_PHASE-_10-7200To120V; 
          } 

object node {name   T3966008_n; phases AN; nominal_voltage 120;  } 

object overhead_line {
          name   span_31652; 
          from   T3966008_n; 
          to     span_31652_n; 
          phases AN; 
          length 188.71773; 
          configuration SystemCnstDefaultAN__1/0 Triplex; 
          } 

object node {name   span_31652_n; phases AN; nominal_voltage 120;  } 

object transformer {
          name   T3965007; 
          from   span_31649_n; 
          to     T3965007_n; 
          phases AN; 
          configuration SINGLE_PHASE-_5-7200To120V; 
          } 

object node {name   T3965007_n; phases AN; nominal_voltage 120;  } 

object overhead_line {
          name   span_31651; 
          from   T3965007_n; 
          to     span_31651_n; 
          phases AN; 
          length 79.017082; 
          configuration SystemCnstDefaultAN__1/0 Triplex; 
          } 

object node {name   span_31651_n; phases AN; nominal_voltage 120;  } 

object transformer {
          name   T3965056; 
          from   span_31643_n; 
          to     T3965056_n; 
          phases AN; 
          configuration SINGLE_PHASE-_37_D3_5-7200To120V; 
          } 

object node {name   T3965056_n; phases AN; nominal_voltage 120;  } 

object underground_line {
          name   span_59542; 
          from   serv_25170_n; 
          to     span_59542_n; 
          phases AN; 
          length 77.582825; 
          configuration SystemCnstDefaultA__4/0AL UG; 
          } 

object node {name   span_59542_n; phases AN; nominal_voltage 120;  } 

object transformer {
          name   T3965028; 
          from   span_31638_n; 
          to     T3965028_n; 
          phases AN; 
          configuration SINGLE_PHASE-_10-7200To120V; 
          } 

object node {name   T3965028_n; phases AN; nominal_voltage 120;  } 

object overhead_line {
          name   span_12199; 
          from   T3965028_n; 
          to     span_12199_n; 
          phases AN; 
          length 76.577667; 
          configuration SystemCnstDefaultAN__1/0 Triplex; 
          } 

object node {name   span_12199_n; phases AN; nominal_voltage 120;  } 

object underground_line {
          name   span_59539; 
          from   serv_25169_n; 
          to     span_59539_n; 
          phases AN; 
          length 118.06821; 
          configuration SystemCnstDefaultA__4/0AL UG; 
          } 

object node {name   span_59539_n; phases AN; nominal_voltage 120;  } 

object overhead_line {
          name   span_12214; 
          from   span_12199_n; 
          to     span_12214_n; 
          phases AN; 
          length 27; 
          configuration SystemCnstDefaultAN__#4 Triplex; 
          } 

object node {name   span_12214_n; phases AN; nominal_voltage 120;  } 

object node {name   SL39-29-20-A_n; phases AN; nominal_voltage 7200;  } 

object switch {
          name   SL39-29-20-A; 
          from   span_55223_n; 
          to     SL39-29-20-A_n; 
          phases AN; 
          status CLOSED; 
          } 

object underground_line {
          name   span_55637; 
          from   SL39-29-20-A_n; 
          to     span_55637_n; 
          phases AN; 
          length 270; 
          configuration SystemCnstDefaultA__1/0 URD; 
          } 

object node {name   span_55637_n; phases AN; nominal_voltage 7200;  } 

object transformer {
          name   T3965059; 
          from   span_55637_n; 
          to     T3965059_n; 
          phases AN; 
          configuration SINGLE_PHASE-_15-7200To120V; 
          } 

object node {name   T3965059_n; phases AN; nominal_voltage 120;  } 

object underground_line {
          name   span_55638; 
          from   serv_21653_n; 
          to     span_55638_n; 
          phases AN; 
          length 48; 
          configuration SystemCnstDefaultA__4/0AL UG; 
          } 

object node {name   span_55638_n; phases AN; nominal_voltage 120;  } 

object overhead_line {
          name   span_971; 
          from   span_31629_n; 
          to     span_971_n; 
          phases AN; 
          length 110.80207; 
          configuration SystemCnstDefaultAN__4 AC; 
          } 

object node {name   span_971_n; phases AN; nominal_voltage 7200;  } 

object transformer {
          name   T3965049; 
          from   span_971_n; 
          to     T3965049_n; 
          phases AN; 
          configuration SINGLE_PHASE-_25-7200To120V; 
          } 

object node {name   T3965049_n; phases AN; nominal_voltage 120;  } 

object overhead_line {
          name   span_31632; 
          from   T3965049_n; 
          to     span_31632_n; 
          phases AN; 
          length 96.076515; 
          configuration SystemCnstDefaultAN__1/0 Triplex; 
          } 

object node {name   span_31632_n; phases AN; nominal_voltage 120;  } 

object overhead_line {
          name   span_31633; 
          from   T3965049_n; 
          to     span_31633_n; 
          phases AN; 
          length 150.07056; 
          configuration SystemCnstDefaultAN__1/0 Triplex; 
          } 

object node {name   span_31633_n; phases AN; nominal_voltage 120;  } 

object overhead_line {
          name   span_31623; 
          from   span_31605_n; 
          to     span_31623_n; 
          phases AN; 
          length 413.78815; 
          configuration SystemCnstDefaultAN__1/0 AC; 
          } 

object node {name   span_31623_n; phases AN; nominal_voltage 7200;  } 

object transformer {
          name   T3965033; 
          from   span_31623_n; 
          to     T3965033_n; 
          phases AN; 
          configuration SINGLE_PHASE-_10-7200To120V; 
          } 

object node {name   T3965033_n; phases AN; nominal_voltage 120;  } 

object overhead_line {
          name   span_31627; 
          from   T3965033_n; 
          to     span_31627_n; 
          phases AN; 
          length 81.835251; 
          configuration SystemCnstDefaultAN__1/0 Triplex; 
          } 

object node {name   span_31627_n; phases AN; nominal_voltage 120;  } 

object overhead_line {
          name   span_31625; 
          from   T3965033_n; 
          to     span_31625_n; 
          phases AN; 
          length 135.37471; 
          configuration SystemCnstDefaultAN__1/0 Triplex; 
          } 

object node {name   span_31625_n; phases AN; nominal_voltage 120;  } 

object overhead_line {
          name   span_31626; 
          from   T3965033_n; 
          to     span_31626_n; 
          phases AN; 
          length 75.792664; 
          configuration SystemCnstDefaultAN__1/0 Triplex; 
          } 

object node {name   span_31626_n; phases AN; nominal_voltage 120;  } 

object overhead_line {
          name   span_31624; 
          from   span_31623_n; 
          to     span_31624_n; 
          phases AN; 
          length 215.20856; 
          configuration SystemCnstDefaultAN__1/0 AC; 
          } 

object node {name   span_31624_n; phases AN; nominal_voltage 7200;  } 

object transformer {
          name   T3965031; 
          from   span_31624_n; 
          to     T3965031_n; 
          phases AN; 
          configuration SINGLE_PHASE--7200To120V; 
          } 

object node {name   T3965031_n; phases AN; nominal_voltage 120;  } 

object overhead_line {
          name   span_31622; 
          from   T3965031_n; 
          to     span_31622_n; 
          phases AN; 
          length 82.996124; 
          configuration SystemCnstDefaultAN__1/0 Triplex; 
          } 

object node {name   span_31622_n; phases AN; nominal_voltage 120;  } 

object transformer {
          name   T3965044; 
          from   span_31604_n; 
          to     T3965044_n; 
          phases AN; 
          configuration SINGLE_PHASE-_10-7200To120V; 
          } 

object node {name   T3965044_n; phases AN; nominal_voltage 120;  } 

object overhead_line {
          name   span_31606; 
          from   T3965044_n; 
          to     span_31606_n; 
          phases AN; 
          length 35.504459; 
          configuration SystemCnstDefaultAN__1/0 Triplex; 
          } 

object node {name   span_31606_n; phases AN; nominal_voltage 120;  } 

object underground_line {
          name   span_48650; 
          from   span_15336_n; 
          to     span_48650_n; 
          phases CN; 
          length 98.381523; 
          configuration SystemCnstDefaultC__1/0 URD; 
          } 

object node {name   span_48650_n; phases CN; nominal_voltage 7200;  } 

object node {name   fake_g_33_n; parent span_48650_n; phases BCN; nominal_voltage 7200;  } 

object switch {
          name   N39-29-A; 
          from   fake_g_33_n; 
          to     span_6138_n; 
          phases BN; 
          status OPEN; 
          } 

object underground_line {
          name   span_13790; 
          from   span_15336_n; 
          to     span_13790_n; 
          phases CN; 
          length 289.16577; 
          configuration SystemCnstDefaultC__1/0 URD; 
          } 

object node {name   span_13790_n; phases CN; nominal_voltage 7200;  } 

object node {name   SL39-29-10-A_n; phases CN; nominal_voltage 7200;  } 

object switch {
          name   SL39-29-10-A; 
          from   span_13790_n; 
          to     SL39-29-10-A_n; 
          phases CN; 
          status CLOSED; 
          } 

object overhead_line {
          name   span_31599; 
          from   SL39-29-10-A_n; 
          to     span_31599_n; 
          phases CN; 
          length 368.70148; 
          configuration SystemCnstDefaultCN__1/0 AC; 
          } 

object node {name   span_31599_n; phases CN; nominal_voltage 7200;  } 

object transformer {
          name   T3965014; 
          from   span_31599_n; 
          to     T3965014_n; 
          phases CN; 
          configuration SINGLE_PHASE-_10-7200To120V; 
          } 

object node {name   T3965014_n; phases CN; nominal_voltage 120;  } 

object overhead_line {
          name   span_31602; 
          from   serv_16964_n; 
          to     span_31602_n; 
          phases CN; 
          length 183.99666; 
          configuration SystemCnstDefaultCN__1/0 Triplex; 
          } 

object node {name   span_31602_n; phases CN; nominal_voltage 120;  } 

object overhead_line {
          name   span_31603; 
          from   serv_16965_n; 
          to     span_31603_n; 
          phases CN; 
          length 101.4766; 
          configuration SystemCnstDefaultCN__1/0 Triplex; 
          } 

object node {name   span_31603_n; phases CN; nominal_voltage 120;  } 

object overhead_line {
          name   span_31601; 
          from   T3965014_n; 
          to     span_31601_n; 
          phases CN; 
          length 234.8727; 
          configuration SystemCnstDefaultCN__1/0 Triplex; 
          } 

object node {name   span_31601_n; phases CN; nominal_voltage 120;  } 

object overhead_line {
          name   span_31600; 
          from   span_31599_n; 
          to     span_31600_n; 
          phases CN; 
          length 222.7023; 
          configuration SystemCnstDefaultCN__1/0 AC; 
          } 

object node {name   span_31600_n; phases CN; nominal_voltage 7200;  } 

object overhead_line {
          name   span_5737; 
          from   span_31600_n; 
          to     span_5737_n; 
          phases CN; 
          length 292.6312; 
          configuration SystemCnstDefaultCN__1/0 AC; 
          } 

object node {name   span_5737_n; phases CN; nominal_voltage 7200;  } 

object transformer {
          name   T3966021; 
          from   span_5737_n; 
          to     T3966021_n; 
          phases CN; 
          configuration SINGLE_PHASE-_25-7200To120V; 
          } 

object node {name   T3966021_n; phases CN; nominal_voltage 120;  } 

object overhead_line {
          name   span_12460; 
          from   T3966021_n; 
          to     span_12460_n; 
          phases CN; 
          length 119.85468; 
          configuration SystemCnstDefaultCN__1/0 Triplex; 
          } 

object node {name   span_12460_n; phases CN; nominal_voltage 120;  } 

object overhead_line {
          name   span_24884; 
          from   T3966021_n; 
          to     span_24884_n; 
          phases CN; 
          length 131.41559; 
          configuration SystemCnstDefaultCN__1/0 Triplex; 
          } 

object node {name   span_24884_n; phases CN; nominal_voltage 120;  } 

object overhead_line {
          name   span_24885; 
          from   span_24884_n; 
          to     span_24885_n; 
          phases CN; 
          length 81.00518; 
          configuration SystemCnstDefaultCN__1/0 Triplex; 
          } 

object node {name   span_24885_n; phases CN; nominal_voltage 120;  } 

object underground_line {
          name   span_24883; 
          from   span_24885_n; 
          to     span_24883_n; 
          phases CN; 
          length 198.22415; 
          configuration SystemCnstDefaultC__4/0AL UG; 
          } 

object node {name   span_24883_n; phases CN; nominal_voltage 120;  } 

object underground_line {
          name   span_12464; 
          from   serv_64109_n; 
          to     span_12464_n; 
          phases CN; 
          length 211.66713; 
          configuration SystemCnstDefaultC__4/0AL UG; 
          } 

object node {name   span_12464_n; phases CN; nominal_voltage 120;  } 

object overhead_line {
          name   span_12462; 
          from   T3966021_n; 
          to     span_12462_n; 
          phases CN; 
          length 160.47513; 
          configuration SystemCnstDefaultCN__1/0 Triplex; 
          } 

object node {name   span_12462_n; phases CN; nominal_voltage 120;  } 

object overhead_line {
          name   span_12463; 
          from   T3966021_n; 
          to     span_12463_n; 
          phases CN; 
          length 200.13002; 
          configuration SystemCnstDefaultCN__1/0 Triplex; 
          } 

object node {name   span_12463_n; phases CN; nominal_voltage 120;  } 

object overhead_line {
          name   span_12461; 
          from   T3966021_n; 
          to     span_12461_n; 
          phases CN; 
          length 173.06537; 
          configuration SystemCnstDefaultCN__1/0 Triplex; 
          } 

object node {name   span_12461_n; phases CN; nominal_voltage 120;  } 

object overhead_line {
          name   span_31607; 
          from   span_5737_n; 
          to     span_31607_n; 
          phases CN; 
          length 371.64816; 
          configuration SystemCnstDefaultCN__1/0 AC; 
          } 

object node {name   span_31607_n; phases CN; nominal_voltage 7200;  } 

object transformer {
          name   T3963064; 
          from   span_31607_n; 
          to     T3963064_n; 
          phases CN; 
          configuration SINGLE_PHASE-_15-7200To120V; 
          } 

object node {name   T3963064_n; phases CN; nominal_voltage 120;  } 

object overhead_line {
          name   span_31608; 
          from   T3963064_n; 
          to     span_31608_n; 
          phases CN; 
          length 147.86464; 
          configuration SystemCnstDefaultCN__1/0 Triplex; 
          } 

object node {name   span_31608_n; phases CN; nominal_voltage 120;  } 

object overhead_line {
          name   span_31609; 
          from   T3963064_n; 
          to     span_31609_n; 
          phases CN; 
          length 75.153038; 
          configuration SystemCnstDefaultCN__1/0 Triplex; 
          } 

object node {name   span_31609_n; phases CN; nominal_voltage 120;  } 

object overhead_line {
          name   span_31611; 
          from   T3963064_n; 
          to     span_31611_n; 
          phases CN; 
          length 208.44443; 
          configuration SystemCnstDefaultCN__1/0 Triplex; 
          } 

object node {name   span_31611_n; phases CN; nominal_voltage 120;  } 

object overhead_line {
          name   span_31610; 
          from   T3963064_n; 
          to     span_31610_n; 
          phases CN; 
          length 146.21571; 
          configuration SystemCnstDefaultCN__1/0 Triplex; 
          } 

object node {name   span_31610_n; phases CN; nominal_voltage 120;  } 

object overhead_line {
          name   span_31612; 
          from   span_31607_n; 
          to     span_31612_n; 
          phases CN; 
          length 97.159454; 
          configuration SystemCnstDefaultCN__1/0 AC; 
          } 

object node {name   span_31612_n; phases CN; nominal_voltage 7200;  } 

object transformer {
          name   T3963075; 
          from   span_31612_n; 
          to     T3963075_n; 
          phases CN; 
          configuration SINGLE_PHASE-_15-7200To120V; 
          } 

object node {name   T3963075_n; phases CN; nominal_voltage 120;  } 

object overhead_line {
          name   span_31613; 
          from   T3963075_n; 
          to     span_31613_n; 
          phases CN; 
          length 87.754448; 
          configuration SystemCnstDefaultCN__1/0 Triplex; 
          } 

object node {name   span_31613_n; phases CN; nominal_voltage 120;  } 

object overhead_line {
          name   span_31616; 
          from   span_31612_n; 
          to     span_31616_n; 
          phases CN; 
          length 89.807083; 
          configuration SystemCnstDefaultCN__1/0 AC; 
          } 

object node {name   span_31616_n; phases CN; nominal_voltage 7200;  } 

object transformer {
          name   T3963084; 
          from   span_31616_n; 
          to     T3963084_n; 
          phases CN; 
          configuration SINGLE_PHASE-_25-7200To120V; 
          } 

object node {name   T3963084_n; phases CN; nominal_voltage 120;  } 

object overhead_line {
          name   span_31618; 
          from   T3963084_n; 
          to     span_31618_n; 
          phases CN; 
          length 143.26656; 
          configuration SystemCnstDefaultCN__1/0 Triplex; 
          } 

object node {name   span_31618_n; phases CN; nominal_voltage 120;  } 

object overhead_line {
          name   span_31617; 
          from   span_31616_n; 
          to     span_31617_n; 
          phases CN; 
          length 83.442421; 
          configuration SystemCnstDefaultCN__1/0 AC; 
          } 

object node {name   span_31617_n; phases CN; nominal_voltage 7200;  } 

object overhead_line {
          name   span_8111; 
          from   span_31617_n; 
          to     span_8111_n; 
          phases CN; 
          length 179.34178; 
          configuration SystemCnstDefaultCN__1/0 AC; 
          } 

object node {name   span_8111_n; phases CN; nominal_voltage 7200;  } 

object fuse {
          name          F39-29-2; 
          from          span_8111_n; 
          to            F39-29-2_n; 
          phases        CN; 
          current_limit 54.4366; 
          mean_replacement_time 1.0 ; 
          repair_dist_type      NONE; 
          } 

object node {name   F39-29-2_n; phases CN; nominal_voltage 7200;  } 

object underground_line {
          name   span_16502; 
          from   F39-29-2_n; 
          to     span_16502_n; 
          phases CN; 
          length 430.63724; 
          configuration SystemCnstDefaultC__1/0 URD; 
          } 

object node {name   span_16502_n; phases CN; nominal_voltage 7200;  } 

object transformer {
          name   T3963078; 
          from   span_16502_n; 
          to     T3963078_n; 
          phases CN; 
          configuration SINGLE_PHASE-_15-7200To120V; 
          } 

object node {name   T3963078_n; phases CN; nominal_voltage 120;  } 

object underground_line {
          name   span_34008; 
          from   T3963078_n; 
          to     span_34008_n; 
          phases CN; 
          length 46.470093; 
          configuration SystemCnstDefaultC__4/0AL UG; 
          } 

object node {name   span_34008_n; phases CN; nominal_voltage 120;  } 

object underground_line {
          name   span_34007; 
          from   T3963078_n; 
          to     span_34007_n; 
          phases CN; 
          length 64.334488; 
          configuration SystemCnstDefaultC__4/0AL UG; 
          } 

object node {name   span_34007_n; phases CN; nominal_voltage 120;  } 

object overhead_line {
          name   span_4088; 
          from   span_8111_n; 
          to     span_4088_n; 
          phases CN; 
          length 130.67961; 
          configuration SystemCnstDefaultCN__1/0 AC; 
          } 

object node {name   span_4088_n; phases CN; nominal_voltage 7200;  } 

object transformer {
          name   T3963018; 
          from   span_4088_n; 
          to     T3963018_n; 
          phases CN; 
          configuration SINGLE_PHASE-_10-7200To120V; 
          } 

object node {name   T3963018_n; phases CN; nominal_voltage 120;  } 

object overhead_line {
          name   span_31621; 
          from   T3963018_n; 
          to     span_31621_n; 
          phases CN; 
          length 116.12761; 
          configuration SystemCnstDefaultCN__1/0 Triplex; 
          } 

object node {name   span_31621_n; phases CN; nominal_voltage 120;  } 

object fuse {
          name          F39-29-11; 
          from          span_4088_n; 
          to            F39-29-11_n; 
          phases        CN; 
          current_limit 71.183296; 
          mean_replacement_time 1.0 ; 
          repair_dist_type      NONE; 
          } 

object node {name   F39-29-11_n; phases CN; nominal_voltage 7200;  } 

object underground_line {
          name   span_18937; 
          from   F39-29-11_n; 
          to     span_18937_n; 
          phases CN; 
          length 218.42825; 
          configuration SystemCnstDefaultC__1/0 URD; 
          } 

object node {name   span_18937_n; phases CN; nominal_voltage 7200;  } 

object underground_line {
          name   span_18938; 
          from   span_18937_n; 
          to     span_18938_n; 
          phases CN; 
          length 427.90311; 
          configuration SystemCnstDefaultC__1/0 URD; 
          } 

object node {name   span_18938_n; phases CN; nominal_voltage 7200;  } 

object underground_line {
          name   span_18933; 
          from   span_18938_n; 
          to     span_18933_n; 
          phases CN; 
          length 56.697544; 
          configuration SystemCnstDefaultC__1/0 URD; 
          } 

object node {name   span_18933_n; phases CN; nominal_voltage 7200;  } 

object underground_line {
          name   span_14469; 
          from   span_18933_n; 
          to     span_14469_n; 
          phases CN; 
          length 47.098087; 
          configuration SystemCnstDefaultC__1/0 URD; 
          } 

object node {name   span_14469_n; phases CN; nominal_voltage 7200;  } 

object transformer {
          name   T3963102; 
          from   span_14469_n; 
          to     T3963102_n; 
          phases CN; 
          configuration SINGLE_PHASE-_15-7200To120V; 
          } 

object node {name   T3963102_n; phases CN; nominal_voltage 120;  } 

object underground_line {
          name   span_34006; 
          from   T3963102_n; 
          to     span_34006_n; 
          phases CN; 
          length 55.610909; 
          configuration SystemCnstDefaultC__4/0AL UG; 
          } 

object node {name   span_34006_n; phases CN; nominal_voltage 120;  } 

object underground_line {
          name   span_34003; 
          from   span_18933_n; 
          to     span_34003_n; 
          phases CN; 
          length 234.04388; 
          configuration SystemCnstDefaultC__1/0 URD; 
          } 

object node {name   span_34003_n; phases CN; nominal_voltage 7200;  } 

object underground_line {
          name   span_34004; 
          from   span_34003_n; 
          to     span_34004_n; 
          phases CN; 
          length 298.56845; 
          configuration SystemCnstDefaultC__1/0 URD; 
          } 

object node {name   span_34004_n; phases CN; nominal_voltage 7200;  } 

object underground_line {
          name   span_34000; 
          from   span_34004_n; 
          to     span_34000_n; 
          phases CN; 
          length 194.3148; 
          configuration SystemCnstDefaultC__1/0 URD; 
          } 

object node {name   span_34000_n; phases CN; nominal_voltage 7200;  } 

object underground_line {
          name   span_50433; 
          from   span_34000_n; 
          to     span_50433_n; 
          phases CN; 
          length 129; 
          configuration SystemCnstDefaultC__1/0 URD; 
          } 

object node {name   span_50433_n; phases CN; nominal_voltage 7200;  } 

object underground_line {
          name   span_50434; 
          from   span_50433_n; 
          to     span_50434_n; 
          phases CN; 
          length 165; 
          configuration SystemCnstDefaultC__1/0 URD; 
          } 

object node {name   span_50434_n; phases CN; nominal_voltage 7200;  } 

object underground_line {
          name   span_26445; 
...